# MODFLOW-6 Unstructured Discretization (DISU6) package exported by HydroAlgorithmics' AlgoMesh 2.0.19.

BEGIN OPTIONS
  LENGTH_UNITS UNKNOWN
END OPTIONS

BEGIN DIMENSIONS
  NODES 10
  NJA 48
  NVERT 26
END DIMENSIONS

BEGIN GRIDDATA
  TOP
    INTERNAL
            10.0000       10.0000       10.0000       10.0000       10.0000       10.0000       10.0000       10.0000       10.0000       10.0000
  BOT
    INTERNAL
             0.0000        0.0000        0.0000        0.0000        0.0000        0.0000        0.0000        0.0000        0.0000        0.0000
  AREA
    INTERNAL
            54.4166       73.4342      106.4971      162.1521       53.6155       53.5960      162.0447      106.5274       73.3034       54.4129
END GRIDDATA

BEGIN CONNECTIONDATA
  IAC
    INTERNAL
        4   4   5   7   4   4   7   5   4   4
  JA
    INTERNAL
            -1        2        3        4
            -2        1        4        5
            -3        1        4        6        7
            -4        1        2        3        5        7        8
            -5        2        4        8
            -6        3        7        9
            -7        3        4        6        8        9       10
            -8        4        5        7       10
            -9        6        7       10
           -10        7        8        9
  IHC
    CONSTANT 1
  CL12
    INTERNAL
            0.0000       3.3065       3.4786       3.3700
            0.0000       7.5000       2.9362       7.5000
            0.0000       7.4430       4.8977       7.5570       4.6892
            0.0000       9.0702       4.8937       8.0711       8.8390       5.2328       7.8104
            0.0000       3.3742       3.2239       3.5632
            0.0000       3.5657       3.2201       3.3753
            0.0000       7.8112       5.2328       8.8322       8.0761       4.8849       9.0673
            0.0000       4.6868       7.5600       4.9016       7.4400
            0.0000       7.5000       2.9309       7.5000
            0.0000       3.3687       3.4795       3.3065
  HWVA
    INTERNAL
            0.0000       5.1072       5.9676       2.8414
            0.0000       5.1072      15.0060       4.6840
            0.0000       5.9676       7.5640       5.6234       8.3229
            0.0000       2.8414      15.0060       7.5640       3.3810      13.1932       8.3384
            0.0000       4.6840       3.3810       5.6289
            0.0000       5.6234       3.3944       4.6715
            0.0000       8.3229      13.1932       3.3944       7.5476      15.0062       2.8455
            0.0000       8.3384       5.6289       7.5476       5.9676
            0.0000       4.6715      15.0062       5.1023
            0.0000       2.8455       5.9676       5.1023
END CONNECTIONDATA

BEGIN VERTICES
#       iv            xv            yv
         1        0.0000       22.5000
         2        5.1072       22.5000
         3        7.5000       24.0324
         4        7.5000       30.0000
         5        0.0000       30.0000
         6        0.0000        7.5000
         7        4.6840        7.5000
         8        0.0000       15.0000
         9       14.6582       21.5880
        10       22.5000       24.3766
        11       22.5000       30.0000
        12       15.0000       30.0000
        13       15.3597        8.4135
        14        7.5000        5.6289
        15        7.5000        0.0000
        16        0.0000        0.0000
        17       30.0000       30.0000
        18       30.0000       22.5000
        19       25.3285       22.5000
        20       24.8977        7.5000
        21       22.5000        5.9676
        22       22.5000        0.0000
        23       15.0000        0.0000
        24       30.0000        7.5000
        25       30.0000       15.0000
        26       30.0000        0.0000
END VERTICES

BEGIN CELL2D
#  icell2d            xc            yc  ncnvert icvert(ncvert)
         1        4.0214       25.8065        5        5        4        3        2        1
         2        1.9582       15.0000        5        8        1        2        7        6
         3       14.9430       26.6662        6       12       11       10        9        3        4
         4        9.7834       14.7240        6        2        7       14       13        9        3
         5        3.9368        4.1258        5       16       15       14        7        6
         6       26.0657       25.8753        5       11       10       19       18       17
         7       20.2343       15.2805        6        9       13       21       20       19       10
         8       15.0600        3.3350        6       23       15       14       13       21       22
         9       28.0452       15.0000        5       25       18       19       20       24
        10       25.9795        4.1935        5       22       21       20       24       26
END CELL2D
